Flow Title=taak_overstroming_flow
Program Version=6.31
Number of Profiles= 2520 
Profile Names=PF 1,PF 2,PF 3,PF 4,PF 5,PF 6,PF 7,PF 8,PF 9,PF 10,PF 11,PF 12,PF 13,PF 14,PF 15,PF 16,PF 17,PF 18,PF 19,PF 20,PF 21,PF 22,PF 23,PF 24,PF 25,PF 26,PF 27,PF 28,PF 29,PF 30,PF 31,PF 32,PF 33,PF 34,PF 35,PF 36,PF 37,PF 38,PF 39,PF 40,PF 41,PF 42,PF 43,PF 44,PF 45,PF 46,PF 47,PF 48,PF 49,PF 50,PF 51,PF 52,PF 53,PF 54,PF 55,PF 56,PF 57,PF 58,PF 59,PF 60,PF 61,PF 62,PF 63,PF 64,PF 65,PF 66,PF 67,PF 68,PF 69,PF 70,PF 71,PF 72,PF 73,PF 74,PF 75,PF 76,PF 77,PF 78,PF 79,PF 80,PF 81,PF 82,PF 83,PF 84,PF 85,PF 86,PF 87,PF 88,PF 89,PF 90,PF 91,PF 92,PF 93,PF 94,PF 95,PF 96,PF 97,PF 98,PF 99,PF 100,PF 101,PF 102,PF 103,PF 104,PF 105,PF 106,PF 107,PF 108,PF 109,PF 110,PF 111,PF 112,PF 113,PF 114,PF 115,PF 116,PF 117,PF 118,PF 119,PF 120,PF 121,PF 122,PF 123,PF 124,PF 125,PF 126,PF 127,PF 128,PF 129,PF 130,PF 131,PF 132,PF 133,PF 134,PF 135,PF 136,PF 137,PF 138,PF 139,PF 140,PF 141,PF 142,PF 143,PF 144,PF 145,PF 146,PF 147,PF 148,PF 149,PF 150,PF 151,PF 152,PF 153,PF 154,PF 155,PF 156,PF 157,PF 158,PF 159,PF 160,PF 161,PF 162,PF 163,PF 164,PF 165,PF 166,PF 167,PF 168,PF 169,PF 170,PF 171,PF 172,PF 173,PF 174,PF 175,PF 176,PF 177,PF 178,PF 179,PF 180,PF 181,PF 182,PF 183,PF 184,PF 185,PF 186,PF 187,PF 188,PF 189,PF 190,PF 191,PF 192,PF 193,PF 194,PF 195,PF 196,PF 197,PF 198,PF 199,PF 200,PF 201,PF 202,PF 203,PF 204,PF 205,PF 206,PF 207,PF 208,PF 209,PF 210,PF 211,PF 212,PF 213,PF 214,PF 215,PF 216,PF 217,PF 218,PF 219,PF 220,PF 221,PF 222,PF 223,PF 224,PF 225,PF 226,PF 227,PF 228,PF 229,PF 230,PF 231,PF 232,PF 233,PF 234,PF 235,PF 236,PF 237,PF 238,PF 239,PF 240,PF 241,PF 242,PF 243,PF 244,PF 245,PF 246,PF 247,PF 248,PF 249,PF 250,PF 251,PF 252,PF 253,PF 254,PF 255,PF 256,PF 257,PF 258,PF 259,PF 260,PF 261,PF 262,PF 263,PF 264,PF 265,PF 266,PF 267,PF 268,PF 269,PF 270,PF 271,PF 272,PF 273,PF 274,PF 275,PF 276,PF 277,PF 278,PF 279,PF 280,PF 281,PF 282,PF 283,PF 284,PF 285,PF 286,PF 287,PF 288,PF 289,PF 290,PF 291,PF 292,PF 293,PF 294,PF 295,PF 296,PF 297,PF 298,PF 299,PF 300,PF 301,PF 302,PF 303,PF 304,PF 305,PF 306,PF 307,PF 308,PF 309,PF 310,PF 311,PF 312,PF 313,PF 314,PF 315,PF 316,PF 317,PF 318,PF 319,PF 320,PF 321,PF 322,PF 323,PF 324,PF 325,PF 326,PF 327,PF 328,PF 329,PF 330,PF 331,PF 332,PF 333,PF 334,PF 335,PF 336,PF 337,PF 338,PF 339,PF 340,PF 341,PF 342,PF 343,PF 344,PF 345,PF 346,PF 347,PF 348,PF 349,PF 350,PF 351,PF 352,PF 353,PF 354,PF 355,PF 356,PF 357,PF 358,PF 359,PF 360,PF 361,PF 362,PF 363,PF 364,PF 365,PF 366,PF 367,PF 368,PF 369,PF 370,PF 371,PF 372,PF 373,PF 374,PF 375,PF 376,PF 377,PF 378,PF 379,PF 380,PF 381,PF 382,PF 383,PF 384,PF 385,PF 386,PF 387,PF 388,PF 389,PF 390,PF 391,PF 392,PF 393,PF 394,PF 395,PF 396,PF 397,PF 398,PF 399,PF 400,PF 401,PF 402,PF 403,PF 404,PF 405,PF 406,PF 407,PF 408,PF 409,PF 410,PF 411,PF 412,PF 413,PF 414,PF 415,PF 416,PF 417,PF 418,PF 419,PF 420,PF 421,PF 422,PF 423,PF 424,PF 425,PF 426,PF 427,PF 428,PF 429,PF 430,PF 431,PF 432,PF 433,PF 434,PF 435,PF 436,PF 437,PF 438,PF 439,PF 440,PF 441,PF 442,PF 443,PF 444,PF 445,PF 446,PF 447,PF 448,PF 449,PF 450,PF 451,PF 452,PF 453,PF 454,PF 455,PF 456,PF 457,PF 458,PF 459,PF 460,PF 461,PF 462,PF 463,PF 464,PF 465,PF 466,PF 467,PF 468,PF 469,PF 470,PF 471,PF 472,PF 473,PF 474,PF 475,PF 476,PF 477,PF 478,PF 479,PF 480,PF 481,PF 482,PF 483,PF 484,PF 485,PF 486,PF 487,PF 488,PF 489,PF 490,PF 491,PF 492,PF 493,PF 494,PF 495,PF 496,PF 497,PF 498,PF 499,PF 500,PF 501,PF 502,PF 503,PF 504,PF 505,PF 506,PF 507,PF 508,PF 509,PF 510,PF 511,PF 512,PF 513,PF 514,PF 515,PF 516,PF 517,PF 518,PF 519,PF 520,PF 521,PF 522,PF 523,PF 524,PF 525,PF 526,PF 527,PF 528,PF 529,PF 530,PF 531,PF 532,PF 533,PF 534,PF 535,PF 536,PF 537,PF 538,PF 539,PF 540,PF 541,PF 542,PF 543,PF 544,PF 545,PF 546,PF 547,PF 548,PF 549,PF 550,PF 551,PF 552,PF 553,PF 554,PF 555,PF 556,PF 557,PF 558,PF 559,PF 560,PF 561,PF 562,PF 563,PF 564,PF 565,PF 566,PF 567,PF 568,PF 569,PF 570,PF 571,PF 572,PF 573,PF 574,PF 575,PF 576,PF 577,PF 578,PF 579,PF 580,PF 581,PF 582,PF 583,PF 584,PF 585,PF 586,PF 587,PF 588,PF 589,PF 590,PF 591,PF 592,PF 593,PF 594,PF 595,PF 596,PF 597,PF 598,PF 599,PF 600,PF 601,PF 602,PF 603,PF 604,PF 605,PF 606,PF 607,PF 608,PF 609,PF 610,PF 611,PF 612,PF 613,PF 614,PF 615,PF 616,PF 617,PF 618,PF 619,PF 620,PF 621,PF 622,PF 623,PF 624,PF 625,PF 626,PF 627,PF 628,PF 629,PF 630,PF 631,PF 632,PF 633,PF 634,PF 635,PF 636,PF 637,PF 638,PF 639,PF 640,PF 641,PF 642,PF 643,PF 644,PF 645,PF 646,PF 647,PF 648,PF 649,PF 650,PF 651,PF 652,PF 653,PF 654,PF 655,PF 656,PF 657,PF 658,PF 659,PF 660,PF 661,PF 662,PF 663,PF 664,PF 665,PF 666,PF 667,PF 668,PF 669,PF 670,PF 671,PF 672,PF 673,PF 674,PF 675,PF 676,PF 677,PF 678,PF 679,PF 680,PF 681,PF 682,PF 683,PF 684,PF 685,PF 686,PF 687,PF 688,PF 689,PF 690,PF 691,PF 692,PF 693,PF 694,PF 695,PF 696,PF 697,PF 698,PF 699,PF 700,PF 701,PF 702,PF 703,PF 704,PF 705,PF 706,PF 707,PF 708,PF 709,PF 710,PF 711,PF 712,PF 713,PF 714,PF 715,PF 716,PF 717,PF 718,PF 719,PF 720,PF 721,PF 722,PF 723,PF 724,PF 725,PF 726,PF 727,PF 728,PF 729,PF 730,PF 731,PF 732,PF 733,PF 734,PF 735,PF 736,PF 737,PF 738,PF 739,PF 740,PF 741,PF 742,PF 743,PF 744,PF 745,PF 746,PF 747,PF 748,PF 749,PF 750,PF 751,PF 752,PF 753,PF 754,PF 755,PF 756,PF 757,PF 758,PF 759,PF 760,PF 761,PF 762,PF 763,PF 764,PF 765,PF 766,PF 767,PF 768,PF 769,PF 770,PF 771,PF 772,PF 773,PF 774,PF 775,PF 776,PF 777,PF 778,PF 779,PF 780,PF 781,PF 782,PF 783,PF 784,PF 785,PF 786,PF 787,PF 788,PF 789,PF 790,PF 791,PF 792,PF 793,PF 794,PF 795,PF 796,PF 797,PF 798,PF 799,PF 800,PF 801,PF 802,PF 803,PF 804,PF 805,PF 806,PF 807,PF 808,PF 809,PF 810,PF 811,PF 812,PF 813,PF 814,PF 815,PF 816,PF 817,PF 818,PF 819,PF 820,PF 821,PF 822,PF 823,PF 824,PF 825,PF 826,PF 827,PF 828,PF 829,PF 830,PF 831,PF 832,PF 833,PF 834,PF 835,PF 836,PF 837,PF 838,PF 839,PF 840,PF 841,PF 842,PF 843,PF 844,PF 845,PF 846,PF 847,PF 848,PF 849,PF 850,PF 851,PF 852,PF 853,PF 854,PF 855,PF 856,PF 857,PF 858,PF 859,PF 860,PF 861,PF 862,PF 863,PF 864,PF 865,PF 866,PF 867,PF 868,PF 869,PF 870,PF 871,PF 872,PF 873,PF 874,PF 875,PF 876,PF 877,PF 878,PF 879,PF 880,PF 881,PF 882,PF 883,PF 884,PF 885,PF 886,PF 887,PF 888,PF 889,PF 890,PF 891,PF 892,PF 893,PF 894,PF 895,PF 896,PF 897,PF 898,PF 899,PF 900,PF 901,PF 902,PF 903,PF 904,PF 905,PF 906,PF 907,PF 908,PF 909,PF 910,PF 911,PF 912,PF 913,PF 914,PF 915,PF 916,PF 917,PF 918,PF 919,PF 920,PF 921,PF 922,PF 923,PF 924,PF 925,PF 926,PF 927,PF 928,PF 929,PF 930,PF 931,PF 932,PF 933,PF 934,PF 935,PF 936,PF 937,PF 938,PF 939,PF 940,PF 941,PF 942,PF 943,PF 944,PF 945,PF 946,PF 947,PF 948,PF 949,PF 950,PF 951,PF 952,PF 953,PF 954,PF 955,PF 956,PF 957,PF 958,PF 959,PF 960,PF 961,PF 962,PF 963,PF 964,PF 965,PF 966,PF 967,PF 968,PF 969,PF 970,PF 971,PF 972,PF 973,PF 974,PF 975,PF 976,PF 977,PF 978,PF 979,PF 980,PF 981,PF 982,PF 983,PF 984,PF 985,PF 986,PF 987,PF 988,PF 989,PF 990,PF 991,PF 992,PF 993,PF 994,PF 995,PF 996,PF 997,PF 998,PF 999,PF 1000,PF 1001,PF 1002,PF 1003,PF 1004,PF 1005,PF 1006,PF 1007,PF 1008,PF 1009,PF 1010,PF 1011,PF 1012,PF 1013,PF 1014,PF 1015,PF 1016,PF 1017,PF 1018,PF 1019,PF 1020,PF 1021,PF 1022,PF 1023,PF 1024,PF 1025,PF 1026,PF 1027,PF 1028,PF 1029,PF 1030,PF 1031,PF 1032,PF 1033,PF 1034,PF 1035,PF 1036,PF 1037,PF 1038,PF 1039,PF 1040,PF 1041,PF 1042,PF 1043,PF 1044,PF 1045,PF 1046,PF 1047,PF 1048,PF 1049,PF 1050,PF 1051,PF 1052,PF 1053,PF 1054,PF 1055,PF 1056,PF 1057,PF 1058,PF 1059,PF 1060,PF 1061,PF 1062,PF 1063,PF 1064,PF 1065,PF 1066,PF 1067,PF 1068,PF 1069,PF 1070,PF 1071,PF 1072,PF 1073,PF 1074,PF 1075,PF 1076,PF 1077,PF 1078,PF 1079,PF 1080,PF 1081,PF 1082,PF 1083,PF 1084,PF 1085,PF 1086,PF 1087,PF 1088,PF 1089,PF 1090,PF 1091,PF 1092,PF 1093,PF 1094,PF 1095,PF 1096,PF 1097,PF 1098,PF 1099,PF 1100,PF 1101,PF 1102,PF 1103,PF 1104,PF 1105,PF 1106,PF 1107,PF 1108,PF 1109,PF 1110,PF 1111,PF 1112,PF 1113,PF 1114,PF 1115,PF 1116,PF 1117,PF 1118,PF 1119,PF 1120,PF 1121,PF 1122,PF 1123,PF 1124,PF 1125,PF 1126,PF 1127,PF 1128,PF 1129,PF 1130,PF 1131,PF 1132,PF 1133,PF 1134,PF 1135,PF 1136,PF 1137,PF 1138,PF 1139,PF 1140,PF 1141,PF 1142,PF 1143,PF 1144,PF 1145,PF 1146,PF 1147,PF 1148,PF 1149,PF 1150,PF 1151,PF 1152,PF 1153,PF 1154,PF 1155,PF 1156,PF 1157,PF 1158,PF 1159,PF 1160,PF 1161,PF 1162,PF 1163,PF 1164,PF 1165,PF 1166,PF 1167,PF 1168,PF 1169,PF 1170,PF 1171,PF 1172,PF 1173,PF 1174,PF 1175,PF 1176,PF 1177,PF 1178,PF 1179,PF 1180,PF 1181,PF 1182,PF 1183,PF 1184,PF 1185,PF 1186,PF 1187,PF 1188,PF 1189,PF 1190,PF 1191,PF 1192,PF 1193,PF 1194,PF 1195,PF 1196,PF 1197,PF 1198,PF 1199,PF 1200,PF 1201,PF 1202,PF 1203,PF 1204,PF 1205,PF 1206,PF 1207,PF 1208,PF 1209,PF 1210,PF 1211,PF 1212,PF 1213,PF 1214,PF 1215,PF 1216,PF 1217,PF 1218,PF 1219,PF 1220,PF 1221,PF 1222,PF 1223,PF 1224,PF 1225,PF 1226,PF 1227,PF 1228,PF 1229,PF 1230,PF 1231,PF 1232,PF 1233,PF 1234,PF 1235,PF 1236,PF 1237,PF 1238,PF 1239,PF 1240,PF 1241,PF 1242,PF 1243,PF 1244,PF 1245,PF 1246,PF 1247,PF 1248,PF 1249,PF 1250,PF 1251,PF 1252,PF 1253,PF 1254,PF 1255,PF 1256,PF 1257,PF 1258,PF 1259,PF 1260,PF 1261,PF 1262,PF 1263,PF 1264,PF 1265,PF 1266,PF 1267,PF 1268,PF 1269,PF 1270,PF 1271,PF 1272,PF 1273,PF 1274,PF 1275,PF 1276,PF 1277,PF 1278,PF 1279,PF 1280,PF 1281,PF 1282,PF 1283,PF 1284,PF 1285,PF 1286,PF 1287,PF 1288,PF 1289,PF 1290,PF 1291,PF 1292,PF 1293,PF 1294,PF 1295,PF 1296,PF 1297,PF 1298,PF 1299,PF 1300,PF 1301,PF 1302,PF 1303,PF 1304,PF 1305,PF 1306,PF 1307,PF 1308,PF 1309,PF 1310,PF 1311,PF 1312,PF 1313,PF 1314,PF 1315,PF 1316,PF 1317,PF 1318,PF 1319,PF 1320,PF 1321,PF 1322,PF 1323,PF 1324,PF 1325,PF 1326,PF 1327,PF 1328,PF 1329,PF 1330,PF 1331,PF 1332,PF 1333,PF 1334,PF 1335,PF 1336,PF 1337,PF 1338,PF 1339,PF 1340,PF 1341,PF 1342,PF 1343,PF 1344,PF 1345,PF 1346,PF 1347,PF 1348,PF 1349,PF 1350,PF 1351,PF 1352,PF 1353,PF 1354,PF 1355,PF 1356,PF 1357,PF 1358,PF 1359,PF 1360,PF 1361,PF 1362,PF 1363,PF 1364,PF 1365,PF 1366,PF 1367,PF 1368,PF 1369,PF 1370,PF 1371,PF 1372,PF 1373,PF 1374,PF 1375,PF 1376,PF 1377,PF 1378,PF 1379,PF 1380,PF 1381,PF 1382,PF 1383,PF 1384,PF 1385,PF 1386,PF 1387,PF 1388,PF 1389,PF 1390,PF 1391,PF 1392,PF 1393,PF 1394,PF 1395,PF 1396,PF 1397,PF 1398,PF 1399,PF 1400,PF 1401,PF 1402,PF 1403,PF 1404,PF 1405,PF 1406,PF 1407,PF 1408,PF 1409,PF 1410,PF 1411,PF 1412,PF 1413,PF 1414,PF 1415,PF 1416,PF 1417,PF 1418,PF 1419,PF 1420,PF 1421,PF 1422,PF 1423,PF 1424,PF 1425,PF 1426,PF 1427,PF 1428,PF 1429,PF 1430,PF 1431,PF 1432,PF 1433,PF 1434,PF 1435,PF 1436,PF 1437,PF 1438,PF 1439,PF 1440,PF 1441,PF 1442,PF 1443,PF 1444,PF 1445,PF 1446,PF 1447,PF 1448,PF 1449,PF 1450,PF 1451,PF 1452,PF 1453,PF 1454,PF 1455,PF 1456,PF 1457,PF 1458,PF 1459,PF 1460,PF 1461,PF 1462,PF 1463,PF 1464,PF 1465,PF 1466,PF 1467,PF 1468,PF 1469,PF 1470,PF 1471,PF 1472,PF 1473,PF 1474,PF 1475,PF 1476,PF 1477,PF 1478,PF 1479,PF 1480,PF 1481,PF 1482,PF 1483,PF 1484,PF 1485,PF 1486,PF 1487,PF 1488,PF 1489,PF 1490,PF 1491,PF 1492,PF 1493,PF 1494,PF 1495,PF 1496,PF 1497,PF 1498,PF 1499,PF 1500,PF 1501,PF 1502,PF 1503,PF 1504,PF 1505,PF 1506,PF 1507,PF 1508,PF 1509,PF 1510,PF 1511,PF 1512,PF 1513,PF 1514,PF 1515,PF 1516,PF 1517,PF 1518,PF 1519,PF 1520,PF 1521,PF 1522,PF 1523,PF 1524,PF 1525,PF 1526,PF 1527,PF 1528,PF 1529,PF 1530,PF 1531,PF 1532,PF 1533,PF 1534,PF 1535,PF 1536,PF 1537,PF 1538,PF 1539,PF 1540,PF 1541,PF 1542,PF 1543,PF 1544,PF 1545,PF 1546,PF 1547,PF 1548,PF 1549,PF 1550,PF 1551,PF 1552,PF 1553,PF 1554,PF 1555,PF 1556,PF 1557,PF 1558,PF 1559,PF 1560,PF 1561,PF 1562,PF 1563,PF 1564,PF 1565,PF 1566,PF 1567,PF 1568,PF 1569,PF 1570,PF 1571,PF 1572,PF 1573,PF 1574,PF 1575,PF 1576,PF 1577,PF 1578,PF 1579,PF 1580,PF 1581,PF 1582,PF 1583,PF 1584,PF 1585,PF 1586,PF 1587,PF 1588,PF 1589,PF 1590,PF 1591,PF 1592,PF 1593,PF 1594,PF 1595,PF 1596,PF 1597,PF 1598,PF 1599,PF 1600,PF 1601,PF 1602,PF 1603,PF 1604,PF 1605,PF 1606,PF 1607,PF 1608,PF 1609,PF 1610,PF 1611,PF 1612,PF 1613,PF 1614,PF 1615,PF 1616,PF 1617,PF 1618,PF 1619,PF 1620,PF 1621,PF 1622,PF 1623,PF 1624,PF 1625,PF 1626,PF 1627,PF 1628,PF 1629,PF 1630,PF 1631,PF 1632,PF 1633,PF 1634,PF 1635,PF 1636,PF 1637,PF 1638,PF 1639,PF 1640,PF 1641,PF 1642,PF 1643,PF 1644,PF 1645,PF 1646,PF 1647,PF 1648,PF 1649,PF 1650,PF 1651,PF 1652,PF 1653,PF 1654,PF 1655,PF 1656,PF 1657,PF 1658,PF 1659,PF 1660,PF 1661,PF 1662,PF 1663,PF 1664,PF 1665,PF 1666,PF 1667,PF 1668,PF 1669,PF 1670,PF 1671,PF 1672,PF 1673,PF 1674,PF 1675,PF 1676,PF 1677,PF 1678,PF 1679,PF 1680,PF 1681,PF 1682,PF 1683,PF 1684,PF 1685,PF 1686,PF 1687,PF 1688,PF 1689,PF 1690,PF 1691,PF 1692,PF 1693,PF 1694,PF 1695,PF 1696,PF 1697,PF 1698,PF 1699,PF 1700,PF 1701,PF 1702,PF 1703,PF 1704,PF 1705,PF 1706,PF 1707,PF 1708,PF 1709,PF 1710,PF 1711,PF 1712,PF 1713,PF 1714,PF 1715,PF 1716,PF 1717,PF 1718,PF 1719,PF 1720,PF 1721,PF 1722,PF 1723,PF 1724,PF 1725,PF 1726,PF 1727,PF 1728,PF 1729,PF 1730,PF 1731,PF 1732,PF 1733,PF 1734,PF 1735,PF 1736,PF 1737,PF 1738,PF 1739,PF 1740,PF 1741,PF 1742,PF 1743,PF 1744,PF 1745,PF 1746,PF 1747,PF 1748,PF 1749,PF 1750,PF 1751,PF 1752,PF 1753,PF 1754,PF 1755,PF 1756,PF 1757,PF 1758,PF 1759,PF 1760,PF 1761,PF 1762,PF 1763,PF 1764,PF 1765,PF 1766,PF 1767,PF 1768,PF 1769,PF 1770,PF 1771,PF 1772,PF 1773,PF 1774,PF 1775,PF 1776,PF 1777,PF 1778,PF 1779,PF 1780,PF 1781,PF 1782,PF 1783,PF 1784,PF 1785,PF 1786,PF 1787,PF 1788,PF 1789,PF 1790,PF 1791,PF 1792,PF 1793,PF 1794,PF 1795,PF 1796,PF 1797,PF 1798,PF 1799,PF 1800,PF 1801,PF 1802,PF 1803,PF 1804,PF 1805,PF 1806,PF 1807,PF 1808,PF 1809,PF 1810,PF 1811,PF 1812,PF 1813,PF 1814,PF 1815,PF 1816,PF 1817,PF 1818,PF 1819,PF 1820,PF 1821,PF 1822,PF 1823,PF 1824,PF 1825,PF 1826,PF 1827,PF 1828,PF 1829,PF 1830,PF 1831,PF 1832,PF 1833,PF 1834,PF 1835,PF 1836,PF 1837,PF 1838,PF 1839,PF 1840,PF 1841,PF 1842,PF 1843,PF 1844,PF 1845,PF 1846,PF 1847,PF 1848,PF 1849,PF 1850,PF 1851,PF 1852,PF 1853,PF 1854,PF 1855,PF 1856,PF 1857,PF 1858,PF 1859,PF 1860,PF 1861,PF 1862,PF 1863,PF 1864,PF 1865,PF 1866,PF 1867,PF 1868,PF 1869,PF 1870,PF 1871,PF 1872,PF 1873,PF 1874,PF 1875,PF 1876,PF 1877,PF 1878,PF 1879,PF 1880,PF 1881,PF 1882,PF 1883,PF 1884,PF 1885,PF 1886,PF 1887,PF 1888,PF 1889,PF 1890,PF 1891,PF 1892,PF 1893,PF 1894,PF 1895,PF 1896,PF 1897,PF 1898,PF 1899,PF 1900,PF 1901,PF 1902,PF 1903,PF 1904,PF 1905,PF 1906,PF 1907,PF 1908,PF 1909,PF 1910,PF 1911,PF 1912,PF 1913,PF 1914,PF 1915,PF 1916,PF 1917,PF 1918,PF 1919,PF 1920,PF 1921,PF 1922,PF 1923,PF 1924,PF 1925,PF 1926,PF 1927,PF 1928,PF 1929,PF 1930,PF 1931,PF 1932,PF 1933,PF 1934,PF 1935,PF 1936,PF 1937,PF 1938,PF 1939,PF 1940,PF 1941,PF 1942,PF 1943,PF 1944,PF 1945,PF 1946,PF 1947,PF 1948,PF 1949,PF 1950,PF 1951,PF 1952,PF 1953,PF 1954,PF 1955,PF 1956,PF 1957,PF 1958,PF 1959,PF 1960,PF 1961,PF 1962,PF 1963,PF 1964,PF 1965,PF 1966,PF 1967,PF 1968,PF 1969,PF 1970,PF 1971,PF 1972,PF 1973,PF 1974,PF 1975,PF 1976,PF 1977,PF 1978,PF 1979,PF 1980,PF 1981,PF 1982,PF 1983,PF 1984,PF 1985,PF 1986,PF 1987,PF 1988,PF 1989,PF 1990,PF 1991,PF 1992,PF 1993,PF 1994,PF 1995,PF 1996,PF 1997,PF 1998,PF 1999,PF 2000,PF 2001,PF 2002,PF 2003,PF 2004,PF 2005,PF 2006,PF 2007,PF 2008,PF 2009,PF 2010,PF 2011,PF 2012,PF 2013,PF 2014,PF 2015,PF 2016,PF 2017,PF 2018,PF 2019,PF 2020,PF 2021,PF 2022,PF 2023,PF 2024,PF 2025,PF 2026,PF 2027,PF 2028,PF 2029,PF 2030,PF 2031,PF 2032,PF 2033,PF 2034,PF 2035,PF 2036,PF 2037,PF 2038,PF 2039,PF 2040,PF 2041,PF 2042,PF 2043,PF 2044,PF 2045,PF 2046,PF 2047,PF 2048,PF 2049,PF 2050,PF 2051,PF 2052,PF 2053,PF 2054,PF 2055,PF 2056,PF 2057,PF 2058,PF 2059,PF 2060,PF 2061,PF 2062,PF 2063,PF 2064,PF 2065,PF 2066,PF 2067,PF 2068,PF 2069,PF 2070,PF 2071,PF 2072,PF 2073,PF 2074,PF 2075,PF 2076,PF 2077,PF 2078,PF 2079,PF 2080,PF 2081,PF 2082,PF 2083,PF 2084,PF 2085,PF 2086,PF 2087,PF 2088,PF 2089,PF 2090,PF 2091,PF 2092,PF 2093,PF 2094,PF 2095,PF 2096,PF 2097,PF 2098,PF 2099,PF 2100,PF 2101,PF 2102,PF 2103,PF 2104,PF 2105,PF 2106,PF 2107,PF 2108,PF 2109,PF 2110,PF 2111,PF 2112,PF 2113,PF 2114,PF 2115,PF 2116,PF 2117,PF 2118,PF 2119,PF 2120,PF 2121,PF 2122,PF 2123,PF 2124,PF 2125,PF 2126,PF 2127,PF 2128,PF 2129,PF 2130,PF 2131,PF 2132,PF 2133,PF 2134,PF 2135,PF 2136,PF 2137,PF 2138,PF 2139,PF 2140,PF 2141,PF 2142,PF 2143,PF 2144,PF 2145,PF 2146,PF 2147,PF 2148,PF 2149,PF 2150,PF 2151,PF 2152,PF 2153,PF 2154,PF 2155,PF 2156,PF 2157,PF 2158,PF 2159,PF 2160,PF 2161,PF 2162,PF 2163,PF 2164,PF 2165,PF 2166,PF 2167,PF 2168,PF 2169,PF 2170,PF 2171,PF 2172,PF 2173,PF 2174,PF 2175,PF 2176,PF 2177,PF 2178,PF 2179,PF 2180,PF 2181,PF 2182,PF 2183,PF 2184,PF 2185,PF 2186,PF 2187,PF 2188,PF 2189,PF 2190,PF 2191,PF 2192,PF 2193,PF 2194,PF 2195,PF 2196,PF 2197,PF 2198,PF 2199,PF 2200,PF 2201,PF 2202,PF 2203,PF 2204,PF 2205,PF 2206,PF 2207,PF 2208,PF 2209,PF 2210,PF 2211,PF 2212,PF 2213,PF 2214,PF 2215,PF 2216,PF 2217,PF 2218,PF 2219,PF 2220,PF 2221,PF 2222,PF 2223,PF 2224,PF 2225,PF 2226,PF 2227,PF 2228,PF 2229,PF 2230,PF 2231,PF 2232,PF 2233,PF 2234,PF 2235,PF 2236,PF 2237,PF 2238,PF 2239,PF 2240,PF 2241,PF 2242,PF 2243,PF 2244,PF 2245,PF 2246,PF 2247,PF 2248,PF 2249,PF 2250,PF 2251,PF 2252,PF 2253,PF 2254,PF 2255,PF 2256,PF 2257,PF 2258,PF 2259,PF 2260,PF 2261,PF 2262,PF 2263,PF 2264,PF 2265,PF 2266,PF 2267,PF 2268,PF 2269,PF 2270,PF 2271,PF 2272,PF 2273,PF 2274,PF 2275,PF 2276,PF 2277,PF 2278,PF 2279,PF 2280,PF 2281,PF 2282,PF 2283,PF 2284,PF 2285,PF 2286,PF 2287,PF 2288,PF 2289,PF 2290,PF 2291,PF 2292,PF 2293,PF 2294,PF 2295,PF 2296,PF 2297,PF 2298,PF 2299,PF 2300,PF 2301,PF 2302,PF 2303,PF 2304,PF 2305,PF 2306,PF 2307,PF 2308,PF 2309,PF 2310,PF 2311,PF 2312,PF 2313,PF 2314,PF 2315,PF 2316,PF 2317,PF 2318,PF 2319,PF 2320,PF 2321,PF 2322,PF 2323,PF 2324,PF 2325,PF 2326,PF 2327,PF 2328,PF 2329,PF 2330,PF 2331,PF 2332,PF 2333,PF 2334,PF 2335,PF 2336,PF 2337,PF 2338,PF 2339,PF 2340,PF 2341,PF 2342,PF 2343,PF 2344,PF 2345,PF 2346,PF 2347,PF 2348,PF 2349,PF 2350,PF 2351,PF 2352,PF 2353,PF 2354,PF 2355,PF 2356,PF 2357,PF 2358,PF 2359,PF 2360,PF 2361,PF 2362,PF 2363,PF 2364,PF 2365,PF 2366,PF 2367,PF 2368,PF 2369,PF 2370,PF 2371,PF 2372,PF 2373,PF 2374,PF 2375,PF 2376,PF 2377,PF 2378,PF 2379,PF 2380,PF 2381,PF 2382,PF 2383,PF 2384,PF 2385,PF 2386,PF 2387,PF 2388,PF 2389,PF 2390,PF 2391,PF 2392,PF 2393,PF 2394,PF 2395,PF 2396,PF 2397,PF 2398,PF 2399,PF 2400,PF 2401,PF 2402,PF 2403,PF 2404,PF 2405,PF 2406,PF 2407,PF 2408,PF 2409,PF 2410,PF 2411,PF 2412,PF 2413,PF 2414,PF 2415,PF 2416,PF 2417,PF 2418,PF 2419,PF 2420,PF 2421,PF 2422,PF 2423,PF 2424,PF 2425,PF 2426,PF 2427,PF 2428,PF 2429,PF 2430,PF 2431,PF 2432,PF 2433,PF 2434,PF 2435,PF 2436,PF 2437,PF 2438,PF 2439,PF 2440,PF 2441,PF 2442,PF 2443,PF 2444,PF 2445,PF 2446,PF 2447,PF 2448,PF 2449,PF 2450,PF 2451,PF 2452,PF 2453,PF 2454,PF 2455,PF 2456,PF 2457,PF 2458,PF 2459,PF 2460,PF 2461,PF 2462,PF 2463,PF 2464,PF 2465,PF 2466,PF 2467,PF 2468,PF 2469,PF 2470,PF 2471,PF 2472,PF 2473,PF 2474,PF 2475,PF 2476,PF 2477,PF 2478,PF 2479,PF 2480,PF 2481,PF 2482,PF 2483,PF 2484,PF 2485,PF 2486,PF 2487,PF 2488,PF 2489,PF 2490,PF 2491,PF 2492,PF 2493,PF 2494,PF 2495,PF 2496,PF 2497,PF 2498,PF 2499,PF 2500,PF 2501,PF 2502,PF 2503,PF 2504,PF 2505,PF 2506,PF 2507,PF 2508,PF 2509,PF 2510,PF 2511,PF 2512,PF 2513,PF 2514,PF 2515,PF 2516,PF 2517,PF 2518,PF 2519,PF 2520
River Rch & RM=Heule1,Heule1          ,167     
 3.99179 3.99243 3.99218 3.99146 3.99029 3.98871 3.98675 3.98443 3.98179 3.97888
  3.9757  3.9723  3.9687 3.96492 3.96097 3.95686 3.95261 3.94823 3.94373 3.93911
 3.93437 3.92951 3.92453 3.91944 3.91424 3.90887 3.90339 3.89778 3.89204 3.88615
 3.88012 3.87394 3.86761 3.86112 3.85447 3.84764 3.84064 3.83345 3.82606 3.81848
 3.81068 3.80268 3.79446 3.78602 3.77734 3.76843 3.75928 3.74988 3.74023 3.73033
 3.72017 3.70976 3.69911 3.68824 3.67713 3.66579 3.65419 3.64234 3.63024 3.61787
 3.60526 3.59241 3.57934 3.56605 3.55253 3.53882  3.5249  3.5108  3.4965 3.48202
 3.46734 3.45246  3.4374 3.42216 3.40675  3.3912 3.37554 3.35976 3.34388  3.3279
 3.31185 3.29574 3.27963  3.2635 3.24731 3.23104  3.2147 3.19834 3.18195 3.16555
 3.14917 3.13289  3.1165 3.10012 3.08379 3.06735 3.05093 3.03444 3.01791 3.00138
 2.98474  2.9681 2.95148 2.93496  2.9185  2.9022 2.88587 2.86954 2.85323 2.83692
 2.82063 2.80437 2.78815 2.77196 2.75579 2.73967 2.72369 2.70786 2.69216  2.6766
 2.66116 2.64586 2.63071 2.61568 2.60073 2.58588 2.57111 2.55642 2.54178 2.52718
  2.5126 2.49802 2.48343  2.4688 2.45415 2.43947 2.42485 2.41029 2.39578 2.38142
 2.36713 2.35289 2.33854 2.32415 2.31009 2.29617 2.28235 2.26897  2.2554 2.24189
 2.22813 2.21627 2.20345 2.19091 2.17663 2.16367 2.15023 2.13763 2.12561 2.11372
 2.10187 2.09005 2.07826 2.06654 2.05484 2.04295 2.03109 2.01929 2.00754 1.99583
 1.98415 1.97249 1.96085 1.94924 1.93768 1.92617  1.9147 1.90329   1.892 1.88086
 1.86989 1.85907 1.84839 1.83785 1.82743 1.81715 1.80699 1.79695 1.78706 1.77734
  1.7678 1.75839 1.74906 1.73983 1.73071 1.72166 1.71267 1.70367 1.69475 1.68592
 1.67716 1.66848 1.65986 1.65129 1.64276 1.63427 1.62581 1.61738 1.60899 1.60064
 1.59232 1.58402 1.57574 1.56751 1.55932 1.55116 1.54304 1.53496 1.52691 1.51891
 1.51096 1.50306 1.49522 1.48743 1.47969   1.472 1.46438 1.45682 1.44931 1.44188
 1.43454 1.42728 1.42011 1.41302 1.40601 1.39909 1.39226 1.38551 1.37884 1.37224
 1.36572 1.35926 1.35286 1.34652 1.34025 1.33402 1.32785 1.32173 1.31566 1.30964
 1.30366 1.29773 1.29185 1.28599 1.28018 1.27439 1.26864 1.26291 1.25721 1.25154
 1.24589 1.24027 1.23468 1.22911 1.22356 1.21804 1.21253 1.20706  1.2016 1.19616
 1.19075 1.18536    1.18 1.17466 1.16934 1.16406  1.1588 1.15359 1.14843 1.14336
 1.13841 1.13364 1.12907 1.12473 1.12065 1.11679 1.11315 1.10969 1.10639 1.10323
 1.10017 1.09719 1.09427 1.09139 1.08852 1.08566  1.0828 1.07994 1.07706 1.07417
 1.07128 1.06838 1.06548 1.06261  1.0598 1.05706 1.05442  1.0519  1.0495 1.04723
 1.04509 1.04305 1.04113  1.0393 1.03757 1.03592 1.03434 1.03282 1.03136 1.02995
 1.02859 1.02726 1.02596  1.0247 1.02346 1.02225 1.02109 1.02002 1.01912 1.01846
 1.01809 1.01805 1.01846 1.01952 1.02149 1.02461 1.02908 1.03509 1.04277 1.05233
 1.06406 1.07813  1.0947 1.11386 1.13572 1.16044 1.18815 1.21912 1.25353 1.29134
 1.33258 1.37771 1.42591 1.47678 1.52928 1.58348 1.64003 1.69936 1.76184 1.82675
 1.89043 1.95241 2.01476 2.08103   2.152 2.22932 2.32821 2.46108 2.57699 2.70784
 2.84499 2.97677 3.11093  3.2495 3.38856 3.52396 3.65823 3.79469 3.93391 4.07413
 4.21206 4.34733 4.48002 4.58622 4.59338 4.63824 4.69131 4.74615  4.8009 4.85268
 4.90325 4.95135 4.99454 5.03484 5.07158  5.1051 5.13515 5.16375 5.19082 5.21876
 5.24462 5.27132  5.2975 5.32413 5.35135 5.37681 5.40358 5.43069 5.45876 5.48552
 5.51294 5.54026 5.56726  5.5938 5.61967 5.64468 5.66872  5.6918 5.71394 5.73566
 5.75544 5.77565 5.79618 5.81587 5.83459 5.85417 5.87384 5.89283 5.91066 5.92729
 5.94499 5.96119 5.97603 5.99132 6.00487 6.01863 6.03116 6.04197 6.05268 6.06391
  6.0738 6.08229 6.09023 6.09762 6.10386 6.10914 6.11363 6.11669 6.12118 6.12324
 6.12498 6.12639 6.12746 6.12825 6.12948 6.13145 6.13452 6.13864 6.14382 6.14996
 6.15687 6.16261 6.17048 6.17806 6.18469 6.19197 6.19896  6.2055 6.21173 6.21733
 6.22247   6.228 6.23276 6.23725 6.24192 6.24611 6.25015 6.25521 6.26155 6.26969
 6.27995  6.2916 6.30641 6.32327 6.34111 6.36371 6.38941 6.41666 6.44814 6.48423
 6.52293  6.5638 6.61064 6.65955 6.70952 6.76434 6.82507 6.88888 6.95565 7.02685
 7.10017  7.1727 7.23653 7.29761 7.35755 7.41472 7.47773 7.53063 7.59127 7.65336
  7.7198 7.77838 7.84082 7.89975  7.9482 8.00071 8.05067 8.10196 8.14668 8.19282
 8.23936 8.27785 8.31528 8.35536 8.39389 8.43189 8.47237 8.50639 8.54145 8.57123
 8.60723  8.6355 8.66725 8.70218 8.73122 8.75609 8.78382 8.80622 8.82843 8.84921
  8.8651 8.88348 8.90261 8.92353 8.94871 8.97298 8.99379 9.01544 9.03652 9.05711
 9.07722 9.09678 9.11588  9.1346 9.14818 9.16376 9.18293 9.20423 9.22245  9.2405
 9.25905 9.27387 9.29147 9.31018 9.32796 9.34977 9.37068 9.39223 9.41301 9.43601
 9.46228 9.48526 9.51152 9.53255 9.55829 9.58478  9.6116 9.63926 9.66863 9.69421
 9.71544 9.74036 9.76598 9.79396 9.86354 9.90554 9.94066 9.9734810.0045110.03234
10.0589210.0854510.1145610.14152 10.167910.1929510.2194310.2444110.2682310.29051
10.3104710.3287510.3470910.3670810.3887910.4107110.4345410.4644110.5993110.69302
10.7519210.81037 10.8717 10.934710.9967811.0588811.1158111.1752911.23836 11.3007
11.3627111.4263411.4827611.5373511.5981511.6782611.7512411.8173511.8767211.93131
11.9836112.0322712.0747212.11688 12.156712.1936112.2279612.2602812.2868512.30519
12.3173612.33498 12.3553 12.375812.3954712.4136212.4290612.4443212.4577912.47117
12.4837312.4947612.5046412.5136712.5225312.5316712.5410612.5494312.5541912.55623
12.55729 12.558312.5602412.5630212.5668212.5722512.5795612.5888712.5994912.61106
12.6233412.6360812.64904  12.66212.6747812.6872112.6991812.7106212.72144 12.7317
12.7413712.7504512.7589512.7665412.7736112.7801112.7861312.7922212.7976112.80244
12.8067712.8106512.8147912.81975 12.824912.8298112.8343412.8384112.8420312.84518
12.8479112.8502912.8526312.8547512.8564512.8576712.8584512.8588112.85879 12.8584
12.8576612.8565912.8552112.8535112.8515212.8492412.8466812.8438412.8407412.83737
12.8337412.82985 12.825712.8212812.81662 12.811712.8065412.8012112.7959812.79105
12.7864712.7821312.7778712.7735712.7691512.7646112.7600512.7548512.7492612.74334
12.7371212.7305712.72366 12.716412.7087912.7008312.6925612.6840412.6753212.66642
12.6573812.6482112.63892 12.629512.61993 12.6102 12.600312.5902312.5799712.56954
12.5589512.5481712.5372312.5260912.5147412.5588212.8812112.9759413.01371 13.0368
13.05374 13.066713.0764413.08334 13.087813.0900513.08929 13.085913.0826713.07801
13.0719713.0646213.0560313.0462513.0353213.0232913.0102112.9961312.9810812.96511
12.9482512.9305312.9119612.8925712.8723912.8514512.8297812.8073812.7842612.76042
12.7359212.7133712.6881512.6705412.68233 12.692612.6952112.6918612.6843212.67392
 12.6619 12.648412.6338412.6182512.6017412.5844212.5667212.54819 12.529212.51162
12.49728 12.474212.4601912.45069 12.427912.4224112.4084212.3452712.0008711.87789
11.8225711.7908911.7712111.7586411.7688611.7779511.7831411.8024611.82701 11.8555
11.8881111.9205111.95602 11.990712.0254912.06119 12.089812.1158312.1401412.16219
12.1834512.1991212.2127312.2248312.2299912.2369712.2408112.2423212.2420712.24012
12.2374612.2325612.22618 12.218512.20132  12.153 12.105712.0661912.0332512.01009
12.00643 12.005612.0033111.9998611.9957611.9913511.9871711.9832911.9787611.97424
11.9698511.9656411.9567711.9313511.9075911.8889411.8738611.8614211.8510111.84222
11.8347211.8279511.8219511.8166611.81203 11.807911.8039611.8004511.7973811.79461
11.7921411.7899911.7882511.7867811.7852911.7843211.7834611.7828411.7824611.78247
11.7826311.7830211.7837111.7845611.7856711.7870611.7885111.7902111.7921211.79413
11.7962811.79858  11.80111.8036411.80655 11.8096 11.812811.8161311.8195611.82306
11.8265911.8301511.8337211.8372811.8408311.8443411.8478211.85124 11.854611.85787
11.8610411.8641211.8670711.8699211.8726511.87525 11.8777   11.8811.88214 11.8841
11.8858611.8874211.8887711.8898911.8907711.8914111.8917911.8919211.8917911.89139
11.8907311.8897911.8885711.8870911.8853311.8832911.8809811.87838 11.875511.87233
11.8688711.8651111.8610511.8566711.8519611.8469511.8416411.83599   11.8311.82367
11.8169911.80997 11.802611.7948911.7868311.7784111.7696211.7604711.7509511.74104
11.73076 11.720111.7090611.6976311.68581 11.673611.6609911.6480911.6347811.62104
11.6069311.59243 11.577511.5622311.5465711.5305211.5142511.4973411.4796511.46166
11.4430611.4251111.4056111.3860511.36616 11.345911.3259511.3044211.2826911.26058
11.2398711.2173111.1956211.1746911.1541211.1354211.1188311.1036311.09001 11.0775
11.06546 11.054111.0428511.0319211.0200611.0077910.9953510.9822510.9684210.95274
10.9367110.9189210.9003610.8809810.8612910.8404810.8184910.7960410.7751210.74974
10.7263710.7009510.6754710.6490710.6221510.5942210.5645210.5349910.5064610.47564
10.4519910.4256310.39692 10.367410.3383110.3021110.2714210.2421210.2108510.18375
10.1530710.1225710.0996410.07106 10.042510.01425  9.9855 9.95795 9.92862 9.89756
 9.86884 9.83954 9.81261 9.78546 9.75568 9.72493 9.70512 9.68093 9.65507 9.63017
 9.60403 9.57708 9.55204 9.52669 9.50084 9.47433 9.44778 9.41867 9.39311 9.36606
 9.34028 9.31486  9.2889 9.26016 9.23452 9.20917 9.18426 9.15993 9.13628 9.11373
  9.0911 9.06962 9.04851 9.02786 9.00732 8.98204 8.96717 8.94692 8.92617 8.90406
 8.88294 8.86092  8.8393 8.81533 8.79245 8.77249 8.74901 8.72641 8.70319 8.68095
 8.65592 8.63194 8.60896  8.5854 8.56083 8.53789 8.51366 8.48964 8.46616 8.44253
 8.41854 8.39334  8.3704   8.347 8.32296 8.29833 8.27471 8.25008 8.22598 8.20168
 8.17818 8.15626 8.13241 8.10983 8.09755 8.09403  8.0934 8.09265 8.09046 8.08647
 8.08233 8.07785 8.07338 8.06933   8.066  8.0635 8.06178 8.05964 8.05699  8.0536
 8.04926 8.04387 8.03703 8.02888 8.02097 8.01103 7.99953 7.98643 7.97443 7.96259
 7.94225 7.92677 7.91343 7.89189 7.87631 7.85876 7.83616 7.81583  7.7969 7.77658
 7.75697 7.74323 7.72849 7.71564 7.70518 7.69666 7.68987 7.68653 7.68217 7.67615
  7.6726 7.66901 7.66414 7.66016 7.65413  7.6476 7.64023 7.63147 7.62193 7.61173
  7.6002 7.58832 7.57561 7.56243  7.5496 7.53543 7.52086 7.50554 7.49029 7.47408
 7.45842 7.44234 7.42564 7.40661 7.38953 7.37646 7.36134 7.34531 7.32527 7.31021
   7.294 7.27684 7.26026 7.24441 7.22805 7.21134 7.19485 7.17831 7.16185 7.14551
 7.12931 7.11323  7.0973 7.08151 7.06588 7.04743 7.03074 7.01573 7.00101 6.98619
 6.97125 6.95675 6.94237 6.92827 6.91434 6.90007 6.88586 6.87021 6.84362 6.80723
 6.76733 6.72818 6.68961 6.65441 6.62046 6.58963  6.5606 6.53423 6.51048 6.48446
 6.46158 6.43787 6.41421 6.39256 6.37301 6.35248 6.33472 6.31607 6.29698 6.27835
 6.25996 6.24181 6.22386  6.2041 6.18723 6.17092 6.15592 6.13859 6.12123 6.10389
 6.08662 6.06944 6.04974  6.0324 6.01592 6.00046 5.98328  5.9647 5.95035 5.93491
  5.9183 5.89974 5.88247 5.86552 5.84857 5.83154 5.81434 5.79698 5.77945 5.75973
 5.74404 5.72581 5.70751 5.68901 5.67027 5.65127 5.63211 5.61277 5.59407 5.57274
 5.55334 5.53492 5.51498 5.49383 5.47418 5.45376 5.43336 5.41282 5.39214 5.37132