Geom Title=taak_geomeotry
Program Version=6.31
Viewing Rectangle= 69403.1381999715 , 70479.4218028802 , 171247.844000004 , 170702.755999605 

River Reach=Heule1          ,Heule1          
Reach XY= 54 
69413.9099999972170794.89999986769450.6700000347 170792.79999976
69491.2900003777170819.49999958869516.8699999544170842.800000052
69544.9199958648170866.700004471 69573.639989969170898.700009553
69596.9500012007170909.99999747269627.6499986007170940.400001147
69661.0200001046170958.10000024669693.5400000883170970.299999721
69727.0500002732170970.999999368 69743.379999801170963.000000426
69777.6699997814170944.89999963669801.0600002483170915.600000191
69820.6499994068170885.09999963469839.3499954059        170856.4
69854.9600001818170812.40000010169873.9399993295170793.899997905
69876.0600001914 170793.2000006669928.0900000402170795.099999679
69961.3099998124170823.100000028 69966.370000015170858.399999998
69966.4800001931170904.90000004370005.5499997916170933.100000043
70012.3500006789170936.89999988770032.2500001704170964.799999971
 70047.240000005170987.49999999770072.4999999767171012.100000018
70096.6899998206171035.20000016370119.9599988752171062.700000682
70134.4300019834171091.79999338970163.6100007504171118.999999581
70183.6200026938        171159.370199.2799998993171187.300000052
 70208.260000195171197.59999986370242.6999999646171225.700000283
70267.7949987043171205.45000431970294.1899999748171184.299999963
70317.4600003543171165.40000040970339.5099990645171144.099998899
70365.5899984319 171120.59999888 70376.439999346171108.899999419
70415.6700012164        171072.370410.4699988954        171041.3
70403.2599998528171014.70000004170377.4949947985         170991.
70369.7799929836170957.999999064 70385.039999979 170921.59999996
70416.7200000993170903.40000002770434.8199995262 170859.29999978
  70425.59000007 170818.2999999670410.8699995229170776.400000164
70396.9700001827170740.29999993470349.6749999078170712.750000075
Rch Text X Y=69647.85125,170774.3624999
Reverse River Text= 0 

Type RM Length L Ch R = 1 ,167     ,39.997,39.997,39.997
XS GIS Cut Line=19
        69414.02        170799.5        69414.01        170799.3
        69413.99        170798.4        69413.99        170798.2
        69413.97        170797.4        69413.96        170797.1
        69413.94        170796.2        69413.92        170795.5
        69413.92        170795.4        69413.91        170794.9
        69413.88        170793.5        69413.85        170792.4
        69413.84        170791.9        69413.81        170790.5
        69413.79        170789.7        69413.77         170789.
        69413.75        170788.1        69413.72        170786.9
        69413.69        170785.5
Node Last Edited Time=Dec/06/2022 09:32:42
#Sta/Elev= 19 
       0  17.424.1999998  17.2981.099999  16.7521.299999  16.484   2.101  15.958
   2.401  15.793   3.301  15.3264.000999   15.12   4.101  13.104   4.601  13.092
   6.002  13.111   7.102  13.118   7.602  13.122   9.003  13.1379.802999  13.138
  10.503  15.547  11.403  16.051  12.604  16.587  14.004  17.474
#Mann= 3 ,0,0
       0     .04       0       0     .04       0  14.004     .04       0
Bank Sta=0,14.004
XS Rating Curve= 0 ,0
XS HTab Starting El and Incr=13.242,0.21, 20 
XS HTab Horizontal Distribution= 5 , 5 , 5 
Exp/Cntr=0.3,0.1

Type RM Length L Ch R = 1 ,166     ,52.599,52.599,52.599
XS GIS Cut Line=23
        69448.68        170806.2        69449.01         170804.
        69449.27        170802.2        69449.37        170801.6
        69449.63        170799.8        69449.79        170798.7
        69450.01        170797.3        69450.28        170795.4
         69450.4        170794.6         69450.5        170793.9
        69450.67        170792.8         69450.8        170791.9
        69450.97        170790.7        69451.08         170790.
        69451.21        170789.1        69451.42        170787.7
        69451.67         170786.        69451.89        170784.6
        69452.12         170783.        69452.26         170782.
        69452.57        170779.9        69453.68        170772.5
        69454.11        170769.5
Node Last Edited Time=Dec/06/2022 09:32:42
#Sta/Elev= 23 
       0  17.698   2.225  17.665   4.043  17.619   4.652  17.568    6.47   16.44
   7.582  15.678   8.999  15.078  10.918  14.076  11.727    13.3  12.434    13.2
  13.547    13.1  14.457   13.12  15.669    13.2  16.377    13.3  17.286  14.169
  18.702  14.944   20.42   15.98  21.838  16.794  23.454  17.726  24.464  17.802
  26.587  17.948  34.069  18.098    37.1  18.262
#Mann= 3 ,0,0
       0     .04       0       0     .04       0    37.1     .04       0
Bank Sta=0,37.1
XS Rating Curve= 0 ,0
XS HTab Starting El and Incr=13.25,0.25, 20 
XS HTab Horizontal Distribution= 5 , 5 , 5 
Exp/Cntr=0.3,0.1

Type RM Length L Ch R = 1 ,165     ,34.754,34.754,34.754
XS GIS Cut Line=25
        69483.31        170828.7        69484.65        170827.2
        69484.91        170826.9        69485.63         170826.
        69486.68        170824.8         69487.6        170823.8
        69488.47        170822.8        69489.05        170822.1
        69489.63        170821.4        69490.28        170820.7
        69490.95        170819.9        69491.29        170819.5
        69491.84        170818.9        69492.54        170818.1
        69493.01        170817.5        69493.58        170816.9
        69494.02        170816.4        69494.77        170815.5
        69495.79        170814.3        69496.46        170813.5
        69497.59        170812.2        69499.26        170810.3
        69501.11        170808.2        69502.78        170806.3
        69504.72         170804.
Node Last Edited Time=Dec/06/2022 09:32:42
#Sta/Elev= 25 
       0  17.723   2.011   17.61   2.408  17.572   3.561  16.885   5.155  16.009
   6.514  15.417    7.84  14.866   8.749  14.301   9.658  14.172  10.613    13.3
  11.657    13.2  12.182    13.1  12.996   13.12  14.059    13.2  14.821   13.25
  15.648  14.068  16.314    14.5  17.486  15.224  19.061  15.812  20.104  16.313
  21.827  16.412  24.356  16.523  27.155  16.729  29.685  16.883  32.694  16.958
#Mann= 3 ,0,0
       0     .04       0       0     .04       0  32.694     .04       0
Bank Sta=0,32.694
XS Rating Curve= 0 ,0
XS HTab Starting El and Incr=13.25,0.22, 20 
XS HTab Horizontal Distribution= 5 , 5 , 5 
Exp/Cntr=0.3,0.1

Type RM Length L Ch R = 1 ,164     ,36.793,36.793,36.793
XS GIS Cut Line=16
         69508.1        170852.9        69509.09        170851.7
        69509.87        170850.8        69510.79        170849.8
        69511.66        170848.8        69512.16        170848.2
        69512.96        170847.3        69513.68        170846.5
        69514.61        170845.4        69516.87        170842.8
        69519.13        170840.2        69519.75        170839.5
        69520.45        170838.7        69520.98        170838.1
        69521.81        170837.1        69521.81        170837.1
Node Last Edited Time=Dec/06/2022 09:32:42
#Sta/Elev= 15 
       0  17.655   1.556   16.86   2.747  16.173   4.105   15.38   5.431  14.791
   6.212  14.226   7.416  14.156   8.492    13.3   9.933   13.12  13.378   13.09
  16.823    13.1  17.758    13.3  18.821  14.127  19.621  14.625  20.921  15.738
#Mann= 3 ,0,0
       0     .04       0       0     .04       0  20.921     .04       0
Bank Sta=0,20.921
XS Rating Curve= 0 ,0
XS HTab Starting El and Incr=13.24,0.22, 20 
XS HTab Horizontal Distribution= 5 , 5 , 5 
Exp/Cntr=0.3,0.1

Type RM Length L Ch R = 1 ,163     ,43.307,43.307,43.307
XS GIS Cut Line=25
         69470.9        170955.9        69474.78        170951.3
        69481.15        170943.5        69487.53        170935.8
         69493.9        170928.1        69500.27        170920.4
        69506.65        170912.7        69513.02         170905.
        69519.39        170897.3        69525.76        170889.6
        69532.14        170881.9        69538.51        170874.2
        69539.97        170872.5        69541.46        170870.7
        69541.61        170870.6        69542.42        170869.6
        69543.15        170868.7        69543.78         170868.
        69544.55        170867.1        69544.92        170866.7
        69550.23        170860.4        69550.39        170860.2
        69551.26        170859.2        69552.06        170858.3
        69561.92        170846.9
Node Last Edited Time=Dec/06/2022 09:32:42
#Sta/Elev= 25 
       0   18.47   6.018   18.38  16.088   18.15  26.088   17.92  36.081   17.68
  46.075   17.61  56.075   16.83  66.068   16.57  76.061   16.36  86.055   16.15
  96.054   16.04 106.048  15.994 108.289  15.858 110.625  15.717 110.805  15.641
 112.092   15.27 113.251  14.659 114.193  14.136 115.377    13.3 115.922   13.12
 124.162   13.15 124.418    13.3 125.743  14.129 126.947  14.636  142.02    15.7
#Mann= 3 ,0,0
       0     .04       0       0     .04       0  142.02     .04       0
Bank Sta=0,142.02
XS Rating Curve= 0 ,0
XS HTab Starting El and Incr=13.27,0.26, 20 
XS HTab Horizontal Distribution= 5 , 5 , 5 
Exp/Cntr=0.3,0.1

Type RM Length L Ch R = 1 ,162     ,24.595,24.595,24.595
XS GIS Cut Line=25
        69478.87         171007.        69489.39        170993.9
        69508.17        170970.5        69514.88        170963.1
         69521.6        170955.7        69528.31        170948.2
        69535.02        170940.8        69541.73        170933.4
        69548.45         170926.        69555.16        170918.6
        69561.87        170911.2        69568.59        170903.8
        69570.07        170902.3        69570.44        170901.9
        69571.12        170901.2        69571.72        170900.6
        69572.38        170899.9        69573.64        170898.7
        69579.37        170892.9        69580.03        170892.2
        69580.72        170891.5        69581.13        170891.1
        69581.64        170890.6        69582.16         170890.
        69582.75        170889.4
Node Last Edited Time=Dec/06/2022 09:32:42
#Sta/Elev= 25 
       0   18.83  16.801   18.38  46.805   18.41  56.795   18.36   66.79   18.25
  76.854   18.01  86.843   17.74  96.832   17.34 106.828    17.1 116.817   16.54
 126.807   16.18 136.803  15.787  138.91  15.457 139.455  15.234 140.431   14.69
 141.279  14.118 142.241   13.25 143.981    13.1 152.134   13.12 153.096    13.2
 154.079    13.3 154.652  14.086 155.366  14.588  156.16  14.995 157.002  15.882
#Mann= 3 ,0,0
       0     .04       0       0     .04       0 157.002     .04       0
Bank Sta=0,157.002
XS Rating Curve= 0 ,0
XS HTab Starting El and Incr=13.25,0.28, 20 
XS HTab Horizontal Distribution= 5 , 5 , 5 
Exp/Cntr=0.3,0.1

Type RM Length L Ch R = 1 ,161     ,44.213,44.213,44.213
XS GIS Cut Line=28
        69550.43        171024.3         69550.9        171022.9
         69560.4        170994.4        69562.97        170988.3
        69566.86        170979.1        69570.75        170969.9
        69574.64        170960.7        69578.53        170951.5
        69582.42        170942.3        69586.31         170933.
         69590.2        170923.8        69591.45        170921.2
        69592.77        170918.5        69593.99         170916.
        69594.27        170915.5        69594.79        170914.4
         69595.4        170913.1         69595.8        170912.3
         69596.1        170911.7        69596.22        170911.4
        69596.71        170910.4        69596.95         170910.
        69597.14        170909.6        69597.56        170908.7
         69597.9         170908.        69598.55        170906.7
         69598.9        170905.9        69600.28        170903.1
Node Last Edited Time=Dec/06/2022 09:32:42
#Sta/Elev= 28 
       0   19.03   1.477   19.03  31.518   18.62  38.138   18.63  48.126   18.48
  58.115   18.39  68.104   18.23  78.092   18.05  88.081   17.62  98.161   17.33
  108.15  17.418 111.035   17.37  114.04   17.11 116.822  17.108 117.395  17.006
 118.612  16.491 120.048  16.012 120.942  15.316 121.613  14.813 121.936  14.284
  123.05   13.25 123.516    13.1 123.959   13.15 124.952    13.3 125.731  14.157
 127.184  15.073 128.057  15.512 131.179    15.7
#Mann= 3 ,0,0
       0     .04       0       0     .04       0 131.179     .04       0
Bank Sta=0,131.179
XS Rating Curve= 0 ,0
XS HTab Starting El and Incr=13.25,0.29, 20 
XS HTab Horizontal Distribution= 5 , 5 , 5 
Exp/Cntr=0.3,0.1

Type RM Length L Ch R = 1 ,160     ,51.392,51.392,51.392
XS GIS Cut Line=25
        69566.72        170995.8         69574.3        170988.8
        69581.67        170982.1        69589.04        170975.3
        69596.41        170968.5        69603.78        170961.8
        69611.15         170955.        69618.52        170948.3
        69619.95         170947.        69621.39        170945.8
        69622.42        170944.9        69624.14        170943.4
         69624.8        170942.9        69625.42        170942.3
        69625.74        170942.1        69626.17        170941.7
        69626.36        170941.5        69627.04        170940.9
        69627.65        170940.4        69628.02        170940.1
        69628.63        170939.6        69628.92        170939.3
        69629.94        170938.4        69631.39        170937.2
        69631.39        170937.2
Node Last Edited Time=Dec/06/2022 09:32:42
#Sta/Elev= 24 
       0   18.71  10.318   18.55  20.278   18.33  30.306   18.02  40.334   17.21
  50.294   16.98  60.322   16.08  70.282  15.567  72.215  15.562  74.089   15.48
  75.457   15.47  77.739  15.479  78.567  15.426   79.43  15.424  79.807  15.225
  80.394  14.607   80.67    14.1  81.577    13.3  82.366  13.127  82.842  13.234
  83.631   13.25  84.048    13.3  85.409    14.1  87.291  15.683
#Mann= 3 ,0,0
       0     .04       0       0     .04       0  87.291     .04       0
Bank Sta=0,87.291
XS Rating Curve= 0 ,0
XS HTab Starting El and Incr=13.277,0.27, 20 
XS HTab Horizontal Distribution= 5 , 5 , 5 
Exp/Cntr=0.3,0.1

Type RM Length L Ch R = 1 ,159     ,38.586,38.586,38.586
XS GIS Cut Line=14
        69662.19        170960.7        69661.99        170960.3
        69661.81        170959.9        69661.46        170959.1
        69661.36        170958.9        69661.02        170958.1
        69660.74        170957.5        69660.48        170956.9
        69660.04         170956.        69659.88        170955.6
        69659.52        170954.8        69659.27        170954.2
         69658.6        170952.8        69657.68        170950.7
Node Last Edited Time=Dec/06/2022 09:32:42
#Sta/Elev= 14 
       0  15.818    .448  15.449.8859997  14.732   1.759  14.062   1.983   13.25
2.851999    13.13.513999   13.15   4.168    13.2    5.17   13.255.600999  14.297
   6.478  14.7297.127999  15.3298.679999  15.363  10.973   15.41
#Mann= 3 ,0,0
       0     .04       0       0     .04       0  10.973     .04       0
Bank Sta=0,10.973
XS Rating Curve= 0 ,0
XS HTab Starting El and Incr=13.25,0.13, 20 
XS HTab Horizontal Distribution= 5 , 5 , 5 
Exp/Cntr=0.3,0.1

Type RM Length L Ch R = 1 ,158     ,34.764,34.764,34.764
XS GIS Cut Line=13
         69692.4        170974.1        69692.74         170973.
         69692.9        170972.4        69693.05         170972.
        69693.29        170971.2        69693.41        170970.8
        69693.54        170970.3        69693.73        170969.7
        69694.54        170967.1        69694.62        170966.8
        69694.84        170966.1        69695.16        170965.1
        69695.49         170964.
Node Last Edited Time=Dec/06/2022 09:32:42
#Sta/Elev= 13 
       0    15.8   1.151  15.755   1.772  15.183     2.2  14.264   3.035  14.195
   3.452  13.339   3.969  13.108   4.598  13.161   7.322    13.3   7.632    14.1
   8.366  15.536   9.416  16.285  10.564   16.63
#Mann= 3 ,0,0
       0     .04       0       0     .04       0  10.564     .04       0
Bank Sta=0,10.564
XS Rating Curve= 0 ,0
XS HTab Starting El and Incr=13.258,0.17, 20 
XS HTab Horizontal Distribution= 5 , 5 , 5 
Exp/Cntr=0.3,0.1

Type RM Length L Ch R = 1 ,157     ,16.5,16.5,16.5
XS GIS Cut Line=21
        69724.19        170977.4        69724.85        170975.9
        69725.51        170974.4        69725.87        170973.6
        69726.05        170973.2        69726.33        170972.6
        69726.39        170972.5        69726.47        170972.3
        69726.89        170971.3        69727.05         170971.
        69728.13        170968.5        69728.49        170967.7
        69728.67        170967.3        69728.75        170967.2
        69728.81         170967.        69729.09        170966.4
         69729.2        170966.1        69729.67        170965.1
        69729.98        170964.4        69730.14         170964.
        69730.98        170962.1
Node Last Edited Time=Dec/06/2022 09:32:42
#Sta/Elev= 21 
       0  16.777   1.639  16.738   3.278  16.385   4.155  16.295   4.593  15.461
   5.256  14.882   5.372   14.25   5.588   14.13   6.672    13.3   7.012    13.1
   9.736   13.12  10.613    13.3  11.051  13.793  11.179  13.987  11.388  14.223
   12.05  15.046   12.37  15.555  13.475  16.406   14.24  17.309  14.671  17.382
  16.749  17.879
#Mann= 3 ,0,0
       0     .04       0       0     .04       0  16.749     .04       0
Bank Sta=0,16.749
XS Rating Curve= 0 ,0
XS HTab Starting El and Incr=13.25,0.23, 20 
XS HTab Horizontal Distribution= 5 , 5 , 5 
Exp/Cntr=0.3,0.1

Type RM Length L Ch R = 2 ,156.5   ,,,
Node Last Edited Time=Dec/06/2022 10:56:53
Bridge Culvert--1,0,-1,-1, 0 
Deck Dist Width WeirC Skew NumUp NumDn MinLoCord MaxHiCord MaxSubmerge Is_Ogee
0.18,16.31,1.4,0, 2, 2, , , 0.98, 0, 0,0,,
       0      18
      18      18
      12      12
       0      18
    18.5    18.5
      12      12
BR Coef=-1 , 0 , 0 ,, 0 ,,,0.8,-1,,0,
WSPro=,,,, 1 ,,,, 0 ,,,, 0 ,,,,-1 ,-1 ,-1 , 0 , 0 , 0 , 0 , 0 
Culvert=2,2.5,2.95,16.31,0.04,0.5,1,58,1,13.403,6.8,12.77,6.8,Culvert #1  , 0 ,0.18
     6.8     6.8
BC Culvert Barrel=1,box_3_1,0
Culvert Bottom n=0.04
Culvert=2,2.5,2.84,16.31,0.04,0.5,1,58,1,13.369,10.2,12.771,10.2,Culvert #2  , 0 ,0.18
    10.2    10.2
BC Culvert Barrel=1,box_3_2,0
Culvert Bottom n=0.04
BC Design=,, 0 ,, 0 ,,,,,,
BC Use User HTab Curves=0
BC User HTab FreeFlow(D)= 0 

Type RM Length L Ch R = 1 ,156     ,39.213,39.213,39.213
XS GIS Cut Line=25
        69740.04        170969.8        69740.42         170969.
        69740.67        170968.5        69740.86        170968.1
        69741.23        170967.4        69741.98        170965.8
         69742.2        170965.4        69742.29        170965.2
        69742.51        170964.8        69742.56        170964.7
        69742.71        170964.4        69743.06        170963.7
        69743.24        170963.3        69743.38         170963.
        69743.76        170962.2        69744.28        170961.2
        69744.55        170960.6        69744.74        170960.2
         69745.7        170958.3        69745.96        170957.8
        69746.38        170956.9        69746.71        170956.3
        69747.13        170955.4        69747.29        170955.1
        69747.49        170954.7
Node Last Edited Time=Dec/06/2022 09:32:42
#Sta/Elev= 25 
       0   18.02    .886  17.829   1.445  17.569   1.888  17.204   2.679  16.581
   4.446  15.235   4.903  14.706   5.122  14.222   5.579  13.838    5.69  13.464
   6.026  13.325   6.809  13.089   7.247   13.18   7.578   12.77   8.464   12.89
   9.591  12.771  10.249  12.851  10.692  13.557  12.821   14.99  13.384  15.513
  14.377  15.926  15.062  16.396  16.055  17.024  16.395  17.436  16.842  17.876
#Mann= 3 ,0,0
       0     .04       0       0     .04       0  16.842     .04       0
Bank Sta=0,16.842
XS Rating Curve= 0 ,0
XS HTab Starting El and Incr=12.92,0.26, 20 
XS HTab Horizontal Distribution= 5 , 5 , 5 
Exp/Cntr=0.3,0.1

Type RM Length L Ch R = 1 ,155     ,37.658,37.658,37.658
XS GIS Cut Line=17
        69780.28        170949.4        69779.92        170948.8
        69779.42         170948.        69779.07        170947.4
        69778.66        170946.6        69778.27         170946.
        69777.67        170944.9        69777.55        170944.7
        69777.33        170944.3        69777.11         170944.
        69776.77        170943.4        69776.53         170943.
        69776.13        170942.2        69775.85        170941.8
        69775.51        170941.2         69774.8         170940.
        69773.39        170937.5
Node Last Edited Time=Dec/06/2022 09:32:42
#Sta/Elev= 17 
       0  15.954.6999998   15.811.643001  15.383   2.338  14.892   3.237  13.909
3.952001  13.516   5.205  13.421   5.439  13.447   5.895  13.494   6.267   13.46
   6.957   13.71   7.423  13.9418.318001  14.495   8.806  15.0519.495001  15.374
   10.89  15.795   13.76  17.335
#Mann= 3 ,0,0
       0     .04       0       0     .04       0   13.76     .04       0
Bank Sta=0,13.76
XS Rating Curve= 0 ,0
XS HTab Starting El and Incr=13.571,0.19, 20 
XS HTab Horizontal Distribution= 5 , 5 , 5 
Exp/Cntr=0.3,0.1

Type RM Length L Ch R = 1 ,154     ,36.284,36.284,36.284
XS GIS Cut Line=19
        69810.18        170921.9        69808.57        170920.8
        69807.52        170920.1        69806.32        170919.2
        69804.77        170918.2        69803.12         170917.
        69802.38        170916.5        69801.85        170916.2
        69801.58         170916.        69801.06        170915.6
        69800.58        170915.3        69800.09         170915.
         69799.9        170914.8         69799.5        170914.6
        69798.78        170914.1        69797.59        170913.3
        69796.51        170912.5         69795.1        170911.6
        69794.58        170911.2
Node Last Edited Time=Dec/06/2022 09:32:42
#Sta/Elev= 19 
       0  16.4651.949999  16.198   3.212  15.998   4.712  15.726   6.557  15.568
   8.597  15.369    9.49  15.008  10.099  14.605  10.435  14.204  11.091  13.137
  11.657  13.173  12.232  13.182  12.507  13.185  12.955  13.294  13.831  14.109
  15.265  14.803  16.609  15.631  18.282  16.944  18.938  17.449
#Mann= 3 ,0,0
       0     .04       0       0     .04       0  18.938     .04       0
Bank Sta=0,18.938
XS Rating Curve= 0 ,0
XS HTab Starting El and Incr=13.287,0.21, 20 
XS HTab Horizontal Distribution= 5 , 5 , 5 
Exp/Cntr=0.3,0.1

Type RM Length L Ch R = 1 ,153     ,35.094,35.094,35.094
XS GIS Cut Line=23
        69827.51        170889.7         69825.9        170888.6
        69824.99         170888.        69824.28        170887.6
        69823.38         170887.        69822.88        170886.6
        69821.72        170885.8        69821.31        170885.6
        69820.78        170885.2        69820.65        170885.1
        69819.84        170884.6        69819.21        170884.2
        69818.65        170883.8        69817.59        170883.1
        69817.15        170882.8        69816.97        170882.7
        69814.67        170881.1         69810.6        170878.4
        69805.76        170875.2        69801.53        170872.5
         69797.3        170869.8        69793.07        170867.2
        69790.39        170865.5
Node Last Edited Time=Dec/06/2022 09:32:42
#Sta/Elev= 23 
       0   15.961.949997   15.883.039997  15.699   3.855  15.411   4.937  14.776
   5.577   13.99   6.986   13.287.441998  13.3368.105999  13.108    8.27  13.049
   9.222  13.2119.968998  13.344  10.657  13.909  11.927  14.761   12.46  15.315
  12.665  15.933  15.467  17.265  20.351  17.405  26.154  17.443  31.172   17.64
   36.19   17.71  41.155   17.74  44.329   17.74
#Mann= 3 ,0,0
       0     .04       0       0     .04       0  44.329     .04       0
Bank Sta=0,44.329
XS Rating Curve= 0 ,0
XS HTab Starting El and Incr=13.199,0.23, 20 
XS HTab Horizontal Distribution= 5 , 5 , 5 
Exp/Cntr=0.3,0.1

Type RM Length L Ch R = 1 ,152     ,47.763,47.763,47.763
XS GIS Cut Line=48
        69849.75        170867.1        69849.73        170867.2
        69847.52        170864.8         69847.5        170864.9
        69846.46        170863.7        69846.44        170863.8
         69845.5        170862.7        69845.48        170862.8
        69843.64        170860.8        69843.63        170860.9
         69843.4        170860.6        69843.38        170860.6
        69842.61        170859.8        69842.59        170859.8
        69842.14        170859.3        69842.13        170859.3
         69841.6        170858.7        69841.59        170858.7
        69841.21        170858.3        69841.19        170858.3
        69840.54        170857.6        69840.53        170857.6
        69839.91         170857.        69839.89         170857.
        69839.36        170856.4        69839.34        170856.4
         69838.5        170855.5        69838.48        170855.5
        69838.15        170855.2        69838.13        170855.2
        69837.86        170854.9        69837.84        170854.9
        69837.51        170854.5        69837.49        170854.5
        69836.24        170853.2        69836.22        170853.2
        69834.59        170851.5        69834.57        170851.5
        69833.05        170849.9        69833.04        170849.9
        69832.03        170848.8        69832.01        170848.8
        69828.95        170844.9        69828.93        170844.9
        69825.86         170841.        69825.85         170841.
        69822.78         170837.        69822.76         170837.
Node Last Edited Time=Dec/06/2022 09:32:42
#Sta/Elev= 46 
       0  16.344.1019974  16.3443.363998  16.239   3.466  16.2395.053997  16.184
5.155998  16.1846.602997   16.136.704998   16.139.422998  15.9389.522999  15.938
9.900999  15.9089.920998  15.908  11.031  15.412  11.051  15.412  11.724  15.111
  11.734  15.111  12.535  13.965  12.545  13.965  13.096  13.757  13.116  13.757
  14.072  13.477  14.082  13.477  14.944  13.422  14.964  13.422  15.765  13.408
  15.785  13.408  17.016   14.03  17.036   14.03  17.482  14.469  17.502  14.469
  17.906  15.014  17.926  15.014  18.444  15.974  18.464  15.974  20.268  16.258
  20.288  16.258  22.643  16.372  22.663  16.372   24.87  16.431   24.88  16.431
  26.373  16.485  26.393  16.485   31.35   17.61  36.344   17.61  41.386   18.46
  41.406   18.46
#Mann= 3 ,0,0
       0     .04       0       0     .04       0  41.406     .04       0
Bank Sta=0,41.406
XS Rating Curve= 0 ,0
XS HTab Starting El and Incr=13.558,0.25, 20 
XS HTab Horizontal Distribution= 5 , 5 , 5 
Exp/Cntr=0.3,0.1

Type RM Length L Ch R = 1 ,151     ,31.17,31.17,31.17
XS GIS Cut Line=22
        69863.23        170817.6        69862.56        170817.2
        69860.65         170816.        69858.99        170814.9
        69858.79        170814.8        69858.42        170814.6
        69857.31        170813.9        69856.54        170813.4
        69855.77        170812.9         69855.5        170812.7
        69854.96        170812.4        69853.99        170811.8
        69853.19        170811.2         69852.7        170810.9
        69852.39        170810.7         69851.9        170810.4
        69851.11        170809.9        69849.93        170809.2
        69845.64        170806.6        69841.34        170804.1
        69837.05        170801.5        69832.75        170798.9
Node Last Edited Time=Dec/06/2022 09:32:42
#Sta/Elev= 22 
       0  16.214.7799988  16.1513.035999  15.778   5.027  15.2535.250999  14.416
5.671999  14.1936.983999  13.479   7.902  13.192    8.82  13.052   9.156  13.036
   9.774      13  10.914   13.21  11.914  13.683  12.489  14.049  12.858  14.367
  13.432   14.84  14.367  15.336  15.739  16.217  20.756   17.73   25.73    17.9
  30.746   17.96  35.771   18.14
#Mann= 3 ,0,0
       0     .04       0       0     .04       0  35.771     .04       0
Bank Sta=0,35.771
XS Rating Curve= 0 ,0
XS HTab Starting El and Incr=13.15,0.25, 20 
XS HTab Horizontal Distribution= 5 , 5 , 5 
Exp/Cntr=0.3,0.1

Type RM Length L Ch R = 1 ,150     ,5,5,5
XS GIS Cut Line=25
        69877.87        170806.4        69877.28        170804.5
        69876.62        170802.5        69875.91        170800.2
        69875.03        170797.4        69874.85        170796.8
        69874.67        170796.3         69874.2        170794.8
        69873.94        170793.9        69873.62        170792.9
        69873.31        170791.9        69873.04        170791.1
        69872.81        170790.3        69872.63        170789.8
        69872.42        170789.1        69872.29        170788.7
        69872.09        170788.1        69871.93        170787.5
        69871.82        170787.2        69871.77        170787.1
        69871.74        170786.9        69870.87        170784.2
        69869.83        170780.9        69869.22         170779.
        69868.39        170776.3
Node Last Edited Time=Dec/06/2022 09:32:42
#Sta/Elev= 25 
       0  16.087    1.99  16.0834.096001  16.057   6.503  15.996   9.438  15.765
  10.064  14.503  10.596  14.153  12.168  13.835  13.105  13.619  14.155  13.692
  15.202   13.65  16.046  13.712  16.878  13.954   17.41  14.234   18.14  14.631
  18.561  14.982  19.194   15.54  19.815  16.663  20.134  16.693  20.246  16.731
  20.448  16.916  23.285  17.138  26.745  17.483   28.74  17.655  31.565  17.884
#Mann= 3 ,0,0
       0     .04       0       0     .04       0  31.565     .04       0
Bank Sta=0,31.565
XS Rating Curve= 0 ,0
XS HTab Starting El and Incr=13.769,0.21, 20 
XS HTab Horizontal Distribution= 5 , 5 , 5 
Exp/Cntr=0.3,0.1

Type RM Length L Ch R = 1 ,149     ,52.649,52.649,52.649
XS GIS Cut Line=21
        69879.45         170804.         69878.8        170801.9
        69878.11        170799.7        69877.36        170797.4
        69876.99        170796.2        69876.77        170795.5
        69876.35        170794.2        69876.06        170793.2
        69875.77        170792.3        69875.42        170791.2
          69875.        170789.9        69874.66        170788.8